*Heading
** Job name: Job-1 Model name: Model-1
** Generated by: Abaqus/CAE 6.13-1
*Preprint, echo=NO, model=NO, history=NO, contact=NO
**
** PARTS
**
*Part, name=Part-1
*Node
      1,           9.,           9.,           1.
      2,           9.,           8.,           1.
      3,           9.,           7.,           1.
      4,           9.,           6.,           1.
      5,           9.,           5.,           1.
      6,           9.,           4.,           1.
      7,           9.,           3.,           1.
      8,           9.,           2.,           1.
      9,           9.,           1.,           1.
     10,           9.,           0.,           1.
     11,           9.,           9.,           0.
     12,           9.,           8.,           0.
     13,           9.,           7.,           0.
     14,           9.,           6.,           0.
     15,           9.,           5.,           0.
     16,           9.,           4.,           0.
     17,           9.,           3.,           0.
     18,           9.,           2.,           0.
     19,           9.,           1.,           0.
     20,           9.,           0.,           0.
** ... 180 like lines cut
*Element, type=C3D8
 1,  21,  22,  32,  31,   1,   2,  12,  11
 2,  22,  23,  33,  32,   2,   3,  13,  12
 3,  23,  24,  34,  33,   3,   4,  14,  13
 4,  24,  25,  35,  34,   4,   5,  15,  14
 5,  25,  26,  36,  35,   5,   6,  16,  15
 6,  26,  27,  37,  36,   6,   7,  17,  16
 7,  27,  28,  38,  37,   7,   8,  18,  17
 8,  28,  29,  39,  38,   8,   9,  19,  18
 9,  29,  30,  40,  39,   9,  10,  20,  19
10,  41,  42,  52,  51,  21,  22,  32,  31
11,  42,  43,  53,  52,  22,  23,  33,  32
12,  43,  44,  54,  53,  23,  24,  34,  33
13,  44,  45,  55,  54,  24,  25,  35,  34
14,  45,  46,  56,  55,  25,  26,  36,  35
15,  46,  47,  57,  56,  26,  27,  37,  36
16,  47,  48,  58,  57,  27,  28,  38,  37
17,  48,  49,  59,  58,  28,  29,  39,  38
18,  49,  50,  60,  59,  29,  30,  40,  39
19,  61,  62,  72,  71,  41,  42,  52,  51
20,  62,  63,  73,  72,  42,  43,  53,  52
** ... 61 like lines cut
*Nset, nset=Set-1, generate
   1,  200,    1
*Elset, elset=Set-1, generate
  1,  81,   1
** Section: Section-1
*Solid Section, elset=Set-1, material=Material-1
,
*End Part
**  
**
** ASSEMBLY
**
*Assembly, name=Assembly
**  
*Instance, name=Part-1-1, part=Part-1
*End Instance
**  
*Nset, nset=Set-X+, instance=Part-1-1, generate
  1,  20,   1
*Elset, elset=Set-X+, instance=Part-1-1, generate
 1,  9,  1
*Nset, nset=Set-X-, instance=Part-1-1, generate
 181,  200,    1
*Elset, elset=Set-X-, instance=Part-1-1, generate
 73,  81,   1
*End Assembly
** 
** MATERIALS
** 
*Material, name=Material-1
*Density
1.E0,
*Depvar
      84,
*User Material, constants=18, type=MECHANICAL
204.6E3,   137.E3,   126.2E3,  45., 90., 0.0, 1.0,   0.02,
44.0,   1000,  60.0,  5.0,  1.0, 1.4, 100,   300,
0.0, 0.0
*User Defined Field
*Initial Condition, type=field, variable=1
Part-1-1.Set-1,1

*Step, name=Step-1, nlgeom=YES
*Dynamic, Explicit
, 50.
*Bulk Viscosity
0.06, 1.2
*Boundary, type=VELOCITY
Set-X+,1,1,0.009
*Boundary
Set-X-,1,1

*Output, field, variable=ALL
*Output, history, variable=PRESELECT
*Output, history
*Node Output, nset=Set-X+
U1,RF1
*End Step

