*Heading
** Job name: mesh Model name: Model-1
** Generated by: Abaqus/CAE 6.13-1
*Preprint, echo=NO, model=NO, history=NO, contact=NO
**
** PARTS
**
*Part, name=Part-1
*Node
      1,  0.200000003,          16.,  0.200000003
      2,  0.200000003,   15.8000002,  0.200000003
      3,  0.200000003,   15.6000004,  0.200000003
      4,  0.200000003,   15.3999996,  0.200000003
      5,  0.200000003,   15.1999998,  0.200000003
      6,  0.200000003,          15.,  0.200000003
      7,  0.200000003,   14.8000002,  0.200000003
      8,  0.200000003,   14.6000004,  0.200000003
      9,  0.200000003,   14.3999996,  0.200000003
     10,  0.200000003,   14.1999998,  0.200000003
     11,  0.200000003,          14.,  0.200000003
     12,  0.200000003,   13.8000002,  0.200000003
     13,  0.200000003,   13.6000004,  0.200000003
     14,  0.200000003,   13.3999996,  0.200000003
     15,  0.200000003,   13.1999998,  0.200000003
     16,  0.200000003,          13.,  0.200000003
     17,  0.200000003,   12.8000002,  0.200000003
     18,  0.200000003,   12.6000004,  0.200000003
     19,  0.200000003,   12.3999996,  0.200000003
     20,  0.200000003,   12.1999998,  0.200000003
** ... 304 like lines cut
*Element, type=C3D8
 1, 163, 164, 245, 244,   1,   2,  83,  82
 2, 164, 165, 246, 245,   2,   3,  84,  83
 3, 165, 166, 247, 246,   3,   4,  85,  84
 4, 166, 167, 248, 247,   4,   5,  86,  85
 5, 167, 168, 249, 248,   5,   6,  87,  86
 6, 168, 169, 250, 249,   6,   7,  88,  87
 7, 169, 170, 251, 250,   7,   8,  89,  88
 8, 170, 171, 252, 251,   8,   9,  90,  89
 9, 171, 172, 253, 252,   9,  10,  91,  90
10, 172, 173, 254, 253,  10,  11,  92,  91
11, 173, 174, 255, 254,  11,  12,  93,  92
12, 174, 175, 256, 255,  12,  13,  94,  93
13, 175, 176, 257, 256,  13,  14,  95,  94
14, 176, 177, 258, 257,  14,  15,  96,  95
15, 177, 178, 259, 258,  15,  16,  97,  96
16, 178, 179, 260, 259,  16,  17,  98,  97
17, 179, 180, 261, 260,  17,  18,  99,  98
18, 180, 181, 262, 261,  18,  19, 100,  99
19, 181, 182, 263, 262,  19,  20, 101, 100
20, 182, 183, 264, 263,  20,  21, 102, 101
** ... 60 like lines cut
*Nset, nset=Set-1, generate
   1,  324,    1
*Elset, elset=Set-1, generate
  1,  80,   1
** Section: Section-1
*Solid Section, elset=Set-1, material=Material-1
,
*End Part
**  
**
** ASSEMBLY
**
*Assembly, name=Assembly
**  
*Instance, name=Part-1-1, part=Part-1
*End Instance
**  
*Nset, nset=Set-X+, instance=Part-1-1, generate
   1,  162,    1
*Elset, elset=Set-X+, instance=Part-1-1, generate
  1,  80,   1
*Nset, nset=Set-X-, instance=Part-1-1, generate
 163,  324,    1
*Elset, elset=Set-X-, instance=Part-1-1, generate
  1,  80,   1
*Nset, nset=Set-Y+, instance=Part-1-1, generate
   1,  244,   81
*Elset, elset=Set-Y+, instance=Part-1-1
 1,
*Nset, nset=Set-Y-, instance=Part-1-1, generate
  81,  324,   81
*Elset, elset=Set-Y-, instance=Part-1-1
 80,
*Nset, nset=Set-Z+, instance=Part-1-1
   1,   2,   3,   4,   5,   6,   7,   8,   9,  10,  11,  12,  13,  14,  15,  16
  17,  18,  19,  20,  21,  22,  23,  24,  25,  26,  27,  28,  29,  30,  31,  32
  33,  34,  35,  36,  37,  38,  39,  40,  41,  42,  43,  44,  45,  46,  47,  48
  49,  50,  51,  52,  53,  54,  55,  56,  57,  58,  59,  60,  61,  62,  63,  64
  65,  66,  67,  68,  69,  70,  71,  72,  73,  74,  75,  76,  77,  78,  79,  80
  81, 163, 164, 165, 166, 167, 168, 169, 170, 171, 172, 173, 174, 175, 176, 177
 178, 179, 180, 181, 182, 183, 184, 185, 186, 187, 188, 189, 190, 191, 192, 193
 194, 195, 196, 197, 198, 199, 200, 201, 202, 203, 204, 205, 206, 207, 208, 209
 210, 211, 212, 213, 214, 215, 216, 217, 218, 219, 220, 221, 222, 223, 224, 225
 226, 227, 228, 229, 230, 231, 232, 233, 234, 235, 236, 237, 238, 239, 240, 241
 242, 243
*Elset, elset=Set-Z+, instance=Part-1-1, generate
  1,  80,   1
*Nset, nset=Set-Z-, instance=Part-1-1
  82,  83,  84,  85,  86,  87,  88,  89,  90,  91,  92,  93,  94,  95,  96,  97
  98,  99, 100, 101, 102, 103, 104, 105, 106, 107, 108, 109, 110, 111, 112, 113
 114, 115, 116, 117, 118, 119, 120, 121, 122, 123, 124, 125, 126, 127, 128, 129
 130, 131, 132, 133, 134, 135, 136, 137, 138, 139, 140, 141, 142, 143, 144, 145
 146, 147, 148, 149, 150, 151, 152, 153, 154, 155, 156, 157, 158, 159, 160, 161
 162, 244, 245, 246, 247, 248, 249, 250, 251, 252, 253, 254, 255, 256, 257, 258
 259, 260, 261, 262, 263, 264, 265, 266, 267, 268, 269, 270, 271, 272, 273, 274
 275, 276, 277, 278, 279, 280, 281, 282, 283, 284, 285, 286, 287, 288, 289, 290
 291, 292, 293, 294, 295, 296, 297, 298, 299, 300, 301, 302, 303, 304, 305, 306
 307, 308, 309, 310, 311, 312, 313, 314, 315, 316, 317, 318, 319, 320, 321, 322
 323, 324
*Elset, elset=Set-Z-, instance=Part-1-1, generate
  1,  80,   1
*End Assembly
** 

** 
** MATERIALS
** 
*Material, name=Material-1
*Density
 1e+03,
*Elastic
 1.17e+11, 0.333
*Plastic, hardening=USER, properties=4
0.3125e+9, 1e-04, 2.0, 16.0
*User Defined Field
*Depvar
	3
** ----------------------------------------------------------------
** 
** STEP: Step-1
** 
*Step, name=Step-1, nlgeom=YES
*Dynamic, Explicit
,50.
*Bulk Viscosity
0.06, 1.2
** 
** BOUNDARY CONDITIONS
** 
** Name: BC-1 Type: Symmetry/Antisymmetry/Encastre
*Boundary
Set-X-, 1, 1
** Name: BC-2 Type: Velocity/Angular velocity
*Boundary, type=VELOCITY
Set-X+, 1, 1, 0.001
** Name: BC-3 Type: Symmetry/Antisymmetry/Encastre
**Boundary
**Set-Z+, 3, 3
** Name: BC-4 Type: Symmetry/Antisymmetry/Encastre
**Boundary
**Set-Z-, 3, 3
** 
** OUTPUT REQUESTS
** 
*Restart, write, number interval=1, time marks=NO
** 
** FIELD OUTPUT: F-Output-1
** 
*Output, field, variable=PRESELECT, time interval=0.1
*Element Output
SDV1, SDV2, SDV3
** 
** HISTORY OUTPUT: H-Output-1
** 
*Output, history, variable=PRESELECT
*Output, history
*Node Output, nset=Set-X+
RF1, U1
*End Step
